Version 4.1
SHEET 1 3204 2404
WIRE 896 -224 720 -224
WIRE 1136 -224 896 -224
WIRE 1280 -224 1216 -224
WIRE 896 -192 896 -224
WIRE 720 -176 720 -224
WIRE 672 -112 656 -112
WIRE 800 -112 768 -112
WIRE -320 -96 -352 -96
WIRE -208 -96 -240 -96
WIRE 1024 -96 960 -96
WIRE 1152 -96 1088 -96
WIRE 896 -80 896 -112
WIRE 192 -32 192 -80
WIRE 656 -16 656 -112
WIRE 704 -16 656 -16
WIRE 800 -16 800 -112
WIRE 800 -16 768 -16
WIRE 960 -16 960 -96
WIRE 992 -16 960 -16
WIRE 1152 -16 1152 -96
WIRE 1152 -16 1072 -16
WIRE -528 32 -608 32
WIRE -352 32 -352 -96
WIRE -352 32 -448 32
WIRE -320 32 -352 32
WIRE -208 32 -208 -96
WIRE -128 32 -208 32
WIRE 800 32 800 -16
WIRE 848 32 800 32
WIRE 1280 32 1280 -224
WIRE -208 48 -208 32
WIRE -208 48 -256 48
WIRE -128 48 -128 32
WIRE -608 64 -608 32
WIRE -320 64 -352 64
WIRE 656 64 656 -16
WIRE 656 64 400 64
WIRE 192 80 192 48
WIRE 192 80 -16 80
WIRE -352 96 -352 64
WIRE 192 112 192 80
WIRE 400 112 400 64
WIRE 656 112 656 64
WIRE 688 112 656 112
WIRE 800 128 800 32
WIRE 800 128 752 128
WIRE 816 128 800 128
WIRE 960 128 960 -16
WIRE 960 128 896 128
WIRE 1008 128 960 128
WIRE 688 144 656 144
WIRE 1152 144 1152 -16
WIRE 1152 144 1072 144
WIRE 1280 144 1280 96
WIRE 1280 144 1152 144
WIRE -128 160 -128 128
WIRE 128 160 -128 160
WIRE 496 160 464 160
WIRE 1008 160 976 160
WIRE -608 176 -608 144
WIRE -128 176 -128 160
WIRE 656 176 656 144
WIRE 496 192 496 160
WIRE 192 240 192 208
WIRE 304 240 192 240
WIRE 400 240 400 208
WIRE 400 240 304 240
WIRE 864 272 832 272
WIRE 976 272 976 160
WIRE 976 272 944 272
WIRE 992 272 976 272
WIRE 1088 272 1072 272
WIRE -128 288 -128 256
WIRE 304 288 304 240
WIRE 1088 288 1088 272
WIRE 128 304 96 304
WIRE 272 304 192 304
WIRE -816 336 -816 304
WIRE -720 336 -720 304
WIRE -608 336 -608 288
WIRE -128 384 -128 368
WIRE 2320 384 2304 384
WIRE 2448 384 2400 384
WIRE -16 400 -16 80
WIRE 96 400 96 304
WIRE 96 400 -16 400
WIRE 160 400 96 400
WIRE 272 416 272 304
WIRE 272 416 224 416
WIRE 304 416 304 368
WIRE 304 416 272 416
WIRE -816 432 -816 416
WIRE -720 432 -720 416
WIRE -608 432 -608 416
WIRE 160 432 128 432
WIRE 128 464 128 432
WIRE 1952 496 1680 496
WIRE 2080 512 2016 512
WIRE 2160 512 2080 512
WIRE 2176 512 2160 512
WIRE 2304 512 2304 384
WIRE 2304 512 2256 512
WIRE 2320 512 2304 512
WIRE 1952 528 1904 528
WIRE 2448 528 2448 384
WIRE 2448 528 2384 528
WIRE 2576 528 2448 528
WIRE 2320 544 2288 544
WIRE 2288 576 2288 544
WIRE 2080 592 2080 512
WIRE 2160 592 2160 512
WIRE 1904 608 1904 528
WIRE 1904 608 1696 608
WIRE 1696 640 1696 608
WIRE 880 672 848 672
WIRE 992 672 960 672
WIRE 1040 672 992 672
WIRE 1184 672 1120 672
WIRE 2080 688 2080 656
WIRE 2160 688 2160 656
WIRE 848 704 848 672
WIRE 1696 752 1696 720
WIRE 992 784 992 672
WIRE 1024 784 992 784
WIRE 1184 800 1184 672
WIRE 1184 800 1088 800
WIRE 1264 800 1184 800
WIRE 800 816 752 816
WIRE 896 816 864 816
WIRE 1024 816 896 816
WIRE 2272 848 2192 848
WIRE 2352 848 2336 848
WIRE 896 864 896 816
WIRE 2192 928 2192 848
WIRE 2240 928 2192 928
WIRE 2352 928 2352 848
WIRE 2352 928 2320 928
WIRE 2768 944 2592 944
WIRE 896 960 896 944
WIRE 2592 1040 2592 944
WIRE 2656 1040 2592 1040
WIRE 1872 1056 1744 1056
WIRE 2016 1056 1936 1056
WIRE 2064 1056 2016 1056
WIRE 2192 1056 2192 928
WIRE 2192 1056 2144 1056
WIRE 2240 1056 2192 1056
WIRE 2768 1056 2768 944
WIRE 2768 1056 2720 1056
WIRE 2816 1056 2768 1056
WIRE 2352 1072 2352 928
WIRE 2352 1072 2304 1072
WIRE 2432 1072 2352 1072
WIRE 2528 1072 2496 1072
WIRE 2656 1072 2528 1072
WIRE 976 1088 944 1088
WIRE 1104 1088 1056 1088
WIRE 2240 1088 2192 1088
WIRE 2528 1120 2528 1072
WIRE 1872 1200 1744 1200
WIRE 2016 1200 2016 1056
WIRE 2016 1200 1936 1200
WIRE 832 1216 784 1216
WIRE 944 1216 944 1088
WIRE 944 1216 912 1216
WIRE 976 1216 944 1216
WIRE 2528 1216 2528 1200
WIRE 1104 1232 1104 1088
WIRE 1104 1232 1040 1232
WIRE 1136 1232 1104 1232
WIRE 2016 1232 2016 1200
WIRE 2064 1232 2064 1200
WIRE 2096 1232 2064 1232
WIRE 2192 1232 2192 1088
WIRE 2192 1232 2176 1232
WIRE 2288 1232 2192 1232
WIRE 2400 1232 2368 1232
WIRE 976 1248 960 1248
WIRE 2400 1264 2400 1232
WIRE 960 1280 960 1248
WIRE 2016 1328 2016 1312
WIRE 2192 1328 2192 1232
WIRE 2288 1328 2192 1328
WIRE 2384 1328 2352 1328
WIRE 848 1344 800 1344
WIRE 960 1344 928 1344
WIRE 2384 1360 2384 1328
WIRE 608 1472 592 1472
WIRE 688 1472 608 1472
WIRE 800 1472 800 1344
WIRE 800 1472 768 1472
WIRE 848 1472 800 1472
WIRE 960 1488 960 1344
WIRE 960 1488 912 1488
WIRE 1072 1488 960 1488
WIRE 1232 1488 1152 1488
WIRE 1312 1488 1232 1488
WIRE 1408 1488 1312 1488
WIRE 848 1504 832 1504
WIRE 832 1536 832 1504
WIRE 1232 1552 1232 1488
WIRE 1312 1552 1312 1488
WIRE 1232 1648 1232 1616
WIRE 1312 1648 1312 1616
WIRE 944 1744 896 1744
WIRE 1088 1744 1024 1744
WIRE 464 1760 464 1712
WIRE 656 1760 656 1712
WIRE 656 1872 656 1840
WIRE 896 1872 896 1744
WIRE 896 1872 656 1872
WIRE 960 1872 896 1872
WIRE 464 1888 464 1840
WIRE 880 1888 464 1888
WIRE 1088 1888 1088 1744
WIRE 1088 1888 1024 1888
WIRE 464 1904 464 1888
WIRE 656 1904 656 1872
WIRE 880 1904 880 1888
WIRE 912 1904 880 1904
WIRE 960 1904 912 1904
WIRE 912 1936 912 1904
WIRE 208 1952 144 1952
WIRE 352 1952 288 1952
WIRE 400 1952 352 1952
WIRE 752 1952 720 1952
WIRE 752 1984 752 1952
WIRE 352 2000 352 1952
WIRE 464 2048 464 2000
WIRE 528 2048 464 2048
WIRE 656 2048 656 2000
WIRE 656 2048 608 2048
WIRE 912 2048 912 2016
WIRE 1536 2064 1536 2016
WIRE 752 2096 752 2064
WIRE 352 2112 352 2080
WIRE 464 2128 464 2048
WIRE 560 2128 544 2128
WIRE 576 2128 560 2128
WIRE 656 2128 656 2048
WIRE 1536 2160 1536 2144
WIRE 1536 2160 1520 2160
WIRE 1520 2176 1520 2160
WIRE 560 2208 560 2128
WIRE 560 2304 560 2288
FLAG 496 192 0
FLAG -608 432 0
FLAG -608 288 Vref
FLAG 192 -80 Vref
FLAG -816 432 0
FLAG -720 432 0
FLAG -816 304 12V
FLAG -720 304 -12V
FLAG 192 448 -12V
FLAG 192 384 12V
FLAG 128 464 0
FLAG -288 80 -12V
FLAG -288 16 12V
FLAG -352 96 0
FLAG -128 384 0
FLAG -608 176 0
FLAG 656 176 0
FLAG 1088 288 0
FLAG 832 272 12V
FLAG 720 160 -12V
FLAG 720 96 12V
FLAG 896 -80 0
FLAG 1040 112 -12V
FLAG 1040 176 12V
FLAG 848 32 osc_core
FLAG 752 816 osc_core
FLAG 1056 832 -12V
FLAG 1056 768 12V
FLAG 896 960 0
FLAG 848 704 0
FLAG 1264 800 saw_out
FLAG 1008 1264 -12V
FLAG 1008 1200 12V
FLAG 960 1280 0
FLAG 784 1216 saw_out
FLAG 1136 1232 inverted_saw
FLAG 1744 1056 saw_out
FLAG 1744 1200 inverted_saw
FLAG 2272 1104 -12V
FLAG 2272 1040 12V
FLAG 2016 1328 -12V
FLAG 2400 1264 0
FLAG 2064 1200 12V
FLAG 2384 1360 0
FLAG 2528 1216 0
FLAG 2688 1088 -12V
FLAG 2688 1024 12V
FLAG 2816 1056 triangle_out
FLAG 1984 544 -12V
FLAG 1984 480 12V
FLAG 1696 752 0
FLAG 1680 496 triangle_out
FLAG 2352 560 -12V
FLAG 2352 496 12V
FLAG 2288 576 0
FLAG 2080 688 0
FLAG 2160 688 0
FLAG 2576 528 square_out
FLAG 1232 1648 0
FLAG 1312 1648 0
FLAG 1408 1488 sine_out
FLAG 880 1520 -12V
FLAG 880 1456 12V
FLAG 832 1536 0
FLAG 608 1472 triangle_out
FLAG 352 2112 0
FLAG 464 1712 12V
FLAG 656 1712 12V
FLAG 752 2096 0
FLAG 560 2304 -12V
FLAG 992 1920 -12V
FLAG 992 1856 12V
FLAG 912 2048 0
FLAG 144 1952 triangle_out
FLAG 1520 2176 0
SYMBOL npn 128 112 R0
SYMATTR InstName Q1
SYMATTR Value 2N3904
SYMBOL npn 464 112 M0
SYMATTR InstName Q2
SYMATTR Value 2N3904
SYMBOL res 176 -48 R0
SYMATTR InstName R1
SYMATTR Value 1Meg
SYMBOL voltage -608 320 R0
WINDOW 123 0 0 Left 0
WINDOW 39 0 0 Left 0
SYMATTR InstName V2
SYMATTR Value 5
SYMBOL OpAmps\\AD711 192 352 R0
SYMATTR InstName U1
SYMBOL voltage -720 320 R0
WINDOW 123 0 0 Left 0
WINDOW 39 0 0 Left 0
SYMATTR InstName V3
SYMATTR Value -12
SYMBOL voltage -816 320 R0
WINDOW 123 0 0 Left 0
WINDOW 39 0 0 Left 0
SYMATTR InstName V4
SYMATTR Value 12
SYMBOL res 288 272 R0
SYMATTR InstName R2
SYMATTR Value 2.2k
SYMBOL OpAmps\\AD711 -288 -16 R0
SYMATTR InstName U2
SYMBOL res -224 -112 R90
WINDOW 0 0 56 VBottom 2
WINDOW 3 32 56 VTop 2
SYMATTR InstName R3
SYMATTR Value 1k
SYMBOL res -432 16 R90
WINDOW 0 0 56 VBottom 2
WINDOW 3 32 56 VTop 2
SYMATTR InstName R4
SYMATTR Value 47k
SYMBOL res -144 32 R0
SYMATTR InstName R5
SYMATTR Value 85
SYMBOL res -144 272 R0
SYMATTR InstName R6
SYMATTR Value 470
SYMBOL voltage -608 48 R0
WINDOW 123 0 0 Left 0
WINDOW 39 0 0 Left 0
SYMATTR InstName V1
SYMATTR Value -1
SYMBOL cap 192 288 R90
WINDOW 0 0 32 VBottom 2
WINDOW 3 32 32 VTop 2
SYMATTR InstName C2
SYMATTR Value 100p
SYMBOL res 960 256 R90
WINDOW 0 0 56 VBottom 2
WINDOW 3 32 56 VTop 2
SYMATTR InstName R7
SYMATTR Value 10k
SYMBOL res 1088 256 R90
WINDOW 0 0 56 VBottom 2
WINDOW 3 32 56 VTop 2
SYMATTR InstName R9
SYMATTR Value 2.2k
SYMBOL cap 768 -32 R90
WINDOW 0 0 32 VBottom 2
WINDOW 3 32 32 VTop 2
SYMATTR InstName C1
SYMATTR Value 4.7n
SYMBOL diode 1296 96 R180
WINDOW 0 24 64 Left 2
WINDOW 3 24 0 Left 2
SYMATTR InstName D1
SYMATTR Value 1N4148
SYMBOL res 912 112 R90
WINDOW 0 0 56 VBottom 2
WINDOW 3 32 56 VTop 2
SYMATTR InstName R8
SYMATTR Value 10k
SYMBOL res 1088 -32 R90
WINDOW 0 0 56 VBottom 2
WINDOW 3 32 56 VTop 2
SYMATTR InstName R10
SYMATTR Value 1Meg
SYMBOL res 1232 -240 R90
WINDOW 0 0 56 VBottom 2
WINDOW 3 32 56 VTop 2
SYMATTR InstName R11
SYMATTR Value 100k
SYMBOL OpAmps\\AD711 720 64 R0
SYMATTR InstName U4
SYMBOL res 880 -208 R0
SYMATTR InstName R12
SYMATTR Value 10k
SYMBOL npn 768 -176 R90
SYMATTR InstName Q3
SYMATTR Value 2N3904
SYMBOL OpAmps\\AD711 1040 208 M180
SYMATTR InstName U3
SYMBOL cap 1088 -112 R90
WINDOW 0 0 32 VBottom 2
WINDOW 3 32 32 VTop 2
SYMATTR InstName C3
SYMATTR Value 10p
SYMBOL res -144 160 R0
SYMATTR InstName R13
SYMATTR Value 15
SYMBOL OpAmps\\AD711 1056 736 R0
SYMATTR InstName U5
SYMBOL cap 864 800 R90
WINDOW 0 0 32 VBottom 2
WINDOW 3 32 32 VTop 2
SYMATTR InstName C4
SYMATTR Value 1µ
SYMBOL res 880 848 R0
SYMATTR InstName R14
SYMATTR Value 10k
SYMBOL res 976 656 R90
WINDOW 0 0 56 VBottom 2
WINDOW 3 32 56 VTop 2
SYMATTR InstName R15
SYMATTR Value 10k
SYMBOL res 1136 656 R90
WINDOW 0 0 56 VBottom 2
WINDOW 3 32 56 VTop 2
SYMATTR InstName R16
SYMATTR Value 110k
SYMBOL OpAmps\\AD711 1008 1168 R0
SYMATTR InstName U6
SYMBOL res 928 1200 R90
WINDOW 0 0 56 VBottom 2
WINDOW 3 32 56 VTop 2
SYMATTR InstName R17
SYMATTR Value 10k
SYMBOL res 1072 1072 R90
WINDOW 0 0 56 VBottom 2
WINDOW 3 32 56 VTop 2
SYMATTR InstName R18
SYMATTR Value 10k
SYMBOL diode 1872 1072 R270
WINDOW 0 32 32 VTop 2
WINDOW 3 0 32 VBottom 2
SYMATTR InstName D2
SYMATTR Value 1N4148
SYMBOL diode 1872 1216 R270
WINDOW 0 32 32 VTop 2
WINDOW 3 0 32 VBottom 2
SYMATTR InstName D3
SYMATTR Value 1N4148
SYMBOL res 2160 1040 R90
WINDOW 0 0 56 VBottom 2
WINDOW 3 32 56 VTop 2
SYMATTR InstName R19
SYMATTR Value 10k
SYMBOL OpAmps\\AD711 2272 1008 R0
SYMATTR InstName U7
SYMBOL res 2336 912 R90
WINDOW 0 0 56 VBottom 2
WINDOW 3 32 56 VTop 2
SYMATTR InstName R20
SYMATTR Value 22k
SYMBOL res 2000 1216 R0
SYMATTR InstName R21
SYMATTR Value 22k
SYMBOL cap 2336 832 R90
WINDOW 0 0 32 VBottom 2
WINDOW 3 32 32 VTop 2
SYMATTR InstName C5
SYMATTR Value 470p
SYMBOL res 2384 1216 R90
WINDOW 0 0 56 VBottom 2
WINDOW 3 32 56 VTop 2
SYMATTR InstName R22
SYMATTR Value 18k
SYMBOL res 2192 1216 R90
WINDOW 0 0 56 VBottom 2
WINDOW 3 32 56 VTop 2
SYMATTR InstName R23
SYMATTR Value 100k
SYMBOL cap 2352 1312 R90
WINDOW 0 0 32 VBottom 2
WINDOW 3 32 32 VTop 2
SYMATTR InstName C6
SYMATTR Value 100n
SYMBOL cap 2496 1056 R90
WINDOW 0 0 32 VBottom 2
WINDOW 3 32 32 VTop 2
SYMATTR InstName C7
SYMATTR Value 1µ
SYMBOL res 2512 1104 R0
SYMATTR InstName R24
SYMATTR Value 10k
SYMBOL OpAmps\\AD711 2688 992 R0
SYMATTR InstName U8
SYMBOL OpAmps\\AD711 1984 448 R0
SYMATTR InstName U9
SYMBOL voltage 1696 624 R0
WINDOW 123 0 0 Left 0
WINDOW 39 0 0 Left 0
SYMATTR InstName V5
SYMATTR Value 3
SYMBOL OpAmps\\AD711 2352 464 R0
SYMATTR InstName U10
SYMBOL res 2272 496 R90
WINDOW 0 0 56 VBottom 2
WINDOW 3 32 56 VTop 2
SYMATTR InstName R25
SYMATTR Value 18k
SYMBOL res 2416 368 R90
WINDOW 0 0 56 VBottom 2
WINDOW 3 32 56 VTop 2
SYMATTR InstName R26
SYMATTR Value 100k
SYMBOL diode 2064 592 R0
SYMATTR InstName D4
SYMATTR Value 1N4148
SYMBOL diode 2176 656 R180
WINDOW 0 24 64 Left 2
WINDOW 3 24 0 Left 2
SYMATTR InstName D5
SYMATTR Value 1N4148
SYMBOL diode 1216 1552 R0
SYMATTR InstName D6
SYMATTR Value 1N4148
SYMBOL diode 1328 1616 R180
WINDOW 0 24 64 Left 2
WINDOW 3 24 0 Left 2
SYMATTR InstName D7
SYMATTR Value 1N4148
SYMBOL res 1168 1472 R90
WINDOW 0 0 56 VBottom 2
WINDOW 3 32 56 VTop 2
SYMATTR InstName R27
SYMATTR Value 10k
SYMBOL OpAmps\\AD711 880 1424 R0
SYMATTR InstName U11
SYMBOL res 784 1456 R90
WINDOW 0 0 56 VBottom 2
WINDOW 3 32 56 VTop 2
SYMATTR InstName R28
SYMATTR Value 68k
SYMBOL res 944 1328 R90
WINDOW 0 0 56 VBottom 2
WINDOW 3 32 56 VTop 2
SYMATTR InstName R29
SYMATTR Value 10k
SYMBOL npn 400 1904 R0
SYMATTR InstName Q4
SYMATTR Value 2N3904
SYMBOL npn 720 1904 M0
SYMATTR InstName Q5
SYMATTR Value 2N3904
SYMBOL res 624 2032 R90
WINDOW 0 0 56 VBottom 2
WINDOW 3 32 56 VTop 2
SYMATTR InstName R30
SYMATTR Value 390
SYMBOL res 560 2112 R90
WINDOW 0 0 56 VBottom 2
WINDOW 3 32 56 VTop 2
SYMATTR InstName R31
SYMATTR Value 250
SYMBOL res 672 2112 R90
WINDOW 0 0 56 VBottom 2
WINDOW 3 32 56 VTop 2
SYMATTR InstName R32
SYMATTR Value 250
SYMBOL res 544 2192 R0
SYMATTR InstName R33
SYMATTR Value 10k
SYMBOL res 304 1936 R90
WINDOW 0 0 56 VBottom 2
WINDOW 3 32 56 VTop 2
SYMATTR InstName R34
SYMATTR Value 4.1k
SYMBOL res 368 2096 R180
WINDOW 0 36 76 Left 2
WINDOW 3 36 40 Left 2
SYMATTR InstName R35
SYMATTR Value 220
SYMBOL res 448 1744 R0
SYMATTR InstName R36
SYMATTR Value 4.7k
SYMBOL res 640 1744 R0
SYMATTR InstName R37
SYMATTR Value 4.7k
SYMBOL res 736 1968 R0
SYMATTR InstName R38
SYMATTR Value 220
SYMBOL OpAmps\\AD711 992 1824 R0
SYMATTR InstName U12
SYMBOL res 896 1920 R0
SYMATTR InstName R39
SYMATTR Value 4.7k
SYMBOL res 1040 1728 R90
WINDOW 0 0 56 VBottom 2
WINDOW 3 32 56 VTop 2
SYMATTR InstName R40
SYMATTR Value 4.7k
SYMBOL voltage 1536 2048 R0
WINDOW 123 0 0 Left 0
WINDOW 39 0 0 Left 0
SYMATTR InstName V6
SYMATTR Value SINE(0 5 678.5 0 0 120)
TEXT -736 552 Left 2 !.tran 0 0.13 0.1 0.000001 startup
TEXT -736 504 Left 2 !.lib opamp.sub
