Version 4
SHEET 1 2420 836
WIRE 368 -80 336 -80
WIRE 496 -80 448 -80
WIRE 672 -64 640 -64
WIRE 784 -64 752 -64
WIRE 1504 -64 1488 -64
WIRE 1632 -64 1584 -64
WIRE 224 32 -16 32
WIRE 336 32 336 -80
WIRE 336 32 304 32
WIRE 384 32 336 32
WIRE 496 48 496 -80
WIRE 496 48 448 48
WIRE 528 48 496 48
WIRE 640 48 640 -64
WIRE 640 48 608 48
WIRE 672 48 640 48
WIRE 1376 48 1088 48
WIRE 1488 48 1488 -64
WIRE 1488 48 1456 48
WIRE 1504 48 1488 48
WIRE 384 64 336 64
WIRE 784 64 784 -64
WIRE 784 64 736 64
WIRE 1632 64 1632 -64
WIRE 1632 64 1568 64
WIRE 672 80 640 80
WIRE 1504 80 1456 80
WIRE 640 112 640 80
WIRE 1088 112 1088 48
WIRE -16 128 -16 32
WIRE 336 160 336 64
WIRE 336 160 304 160
WIRE 384 160 336 160
WIRE 496 160 464 160
WIRE 1456 160 1456 80
WIRE 1456 160 1424 160
WIRE 1504 160 1456 160
WIRE 1616 160 1584 160
WIRE 496 192 496 160
WIRE 1616 192 1616 160
WIRE -16 224 -16 208
WIRE 1088 224 1088 192
WIRE -560 256 -560 240
WIRE -384 256 -384 240
WIRE -304 256 -304 240
WIRE 768 464 752 464
WIRE 880 464 848 464
WIRE 560 480 384 480
WIRE 1440 528 1408 528
WIRE 1552 528 1520 528
WIRE 64 544 -32 544
WIRE 160 544 128 544
WIRE 224 544 160 544
WIRE 352 544 304 544
WIRE 384 544 384 480
WIRE 448 544 384 544
WIRE 160 560 160 544
WIRE 560 560 560 480
WIRE 560 560 512 560
WIRE 640 560 560 560
WIRE 752 560 752 464
WIRE 752 560 720 560
WIRE 784 560 752 560
WIRE -32 576 -32 544
WIRE 352 576 352 544
WIRE 448 576 352 576
WIRE 880 576 880 464
WIRE 880 576 848 576
WIRE 784 592 768 592
WIRE 1296 640 1152 640
WIRE 1408 640 1408 528
WIRE 1408 640 1376 640
WIRE 1440 640 1408 640
WIRE 160 656 160 640
WIRE 768 656 768 592
WIRE 1552 656 1552 528
WIRE 1552 656 1504 656
WIRE 1600 656 1552 656
WIRE -32 672 -32 656
WIRE 1440 672 1424 672
WIRE 1152 704 1152 640
WIRE 1424 704 1424 672
WIRE 1152 816 1152 784
FLAG -16 224 0
FLAG -304 256 0
FLAG -384 256 0
FLAG -384 160 V+
FLAG 416 16 V+
FLAG -304 160 V-
FLAG 416 80 V-
FLAG 496 192 0
FLAG 640 112 0
FLAG 704 32 V+
FLAG 704 96 V-
FLAG -560 256 0
FLAG -560 160 Vref
FLAG 224 160 Vref
FLAG -32 672 0
FLAG 816 544 V+
FLAG 816 608 V-
FLAG 768 656 0
FLAG 160 656 0
FLAG 480 528 V+
FLAG 480 592 V-
FLAG 1088 224 0
FLAG 1536 32 V+
FLAG 1536 96 V-
FLAG 1616 192 0
FLAG 1344 160 Vref
FLAG 1152 816 0
FLAG 1472 624 V+
FLAG 1472 688 V-
FLAG 1424 704 0
SYMBOL voltage -16 112 R0
WINDOW 123 0 0 Left 0
WINDOW 39 0 0 Left 0
SYMATTR InstName V1
SYMATTR Value SINE(1.65 1.65 100)
SYMBOL voltage -384 144 R0
WINDOW 123 0 0 Left 0
WINDOW 39 0 0 Left 0
SYMATTR InstName V2
SYMATTR Value 12
SYMBOL voltage -304 144 R0
WINDOW 123 0 0 Left 0
WINDOW 39 0 0 Left 0
SYMATTR InstName V3
SYMATTR Value -12
SYMBOL Opamps\\UniversalOpAmp1 416 48 R0
SYMATTR InstName U1
SYMBOL res 320 16 R90
WINDOW 0 0 56 VBottom 2
WINDOW 3 32 56 VTop 2
SYMATTR InstName Rg
SYMATTR Value 10k
SYMBOL res 464 -96 R90
WINDOW 0 0 56 VBottom 2
WINDOW 3 32 56 VTop 2
SYMATTR InstName Rf
SYMATTR Value 30k
SYMBOL res 480 144 R90
WINDOW 0 0 56 VBottom 2
WINDOW 3 32 56 VTop 2
SYMATTR InstName R2
SYMATTR Value 18k
SYMBOL res 320 144 R90
WINDOW 0 0 56 VBottom 2
WINDOW 3 32 56 VTop 2
SYMATTR InstName R1
SYMATTR Value 30k
SYMBOL Opamps\\UniversalOpAmp1 704 64 R0
SYMATTR InstName U2
SYMBOL res 624 32 R90
WINDOW 0 0 56 VBottom 2
WINDOW 3 32 56 VTop 2
SYMATTR InstName R3
SYMATTR Value 10k
SYMBOL res 768 -80 R90
WINDOW 0 0 56 VBottom 2
WINDOW 3 32 56 VTop 2
SYMATTR InstName R4
SYMATTR Value 10k
SYMBOL voltage -560 144 R0
WINDOW 123 0 0 Left 0
WINDOW 39 0 0 Left 0
SYMATTR InstName V4
SYMATTR Value 3.3
SYMBOL Opamps\\UniversalOpAmp1 816 576 R0
SYMATTR InstName U3
SYMBOL voltage -32 560 R0
WINDOW 3 -102 150 Left 2
WINDOW 123 0 0 Left 0
WINDOW 39 0 0 Left 0
SYMATTR InstName V5
SYMATTR Value SINE(1.8 1.8 100)
SYMBOL res 736 544 R90
WINDOW 0 0 56 VBottom 2
WINDOW 3 32 56 VTop 2
SYMATTR InstName R5
SYMATTR Value 10k
SYMBOL res 864 448 R90
WINDOW 0 0 56 VBottom 2
WINDOW 3 32 56 VTop 2
SYMATTR InstName R6
SYMATTR Value 30k
SYMBOL cap 128 528 R90
WINDOW 0 0 32 VBottom 2
WINDOW 3 32 32 VTop 2
SYMATTR InstName C1
SYMATTR Value 2.2µ
SYMBOL res 144 544 R0
SYMATTR InstName R7
SYMATTR Value 47k
SYMBOL res 320 528 R90
WINDOW 0 0 56 VBottom 2
WINDOW 3 32 56 VTop 2
SYMATTR InstName R8
SYMATTR Value 100
SYMBOL Opamps\\UniversalOpAmp1 480 560 R0
SYMATTR InstName U4
SYMBOL voltage 1088 96 R0
WINDOW 123 0 0 Left 0
WINDOW 39 0 0 Left 0
SYMATTR InstName V6
SYMATTR Value SINE(0 5 100)
SYMBOL Opamps\\UniversalOpAmp1 1536 64 R0
SYMATTR InstName U5
SYMBOL res 1472 32 R90
WINDOW 0 0 56 VBottom 2
WINDOW 3 32 56 VTop 2
SYMATTR InstName R9
SYMATTR Value 30k
SYMBOL res 1600 -80 R90
WINDOW 0 0 56 VBottom 2
WINDOW 3 32 56 VTop 2
SYMATTR InstName R10
SYMATTR Value 10k
SYMBOL res 1600 144 R90
WINDOW 0 0 56 VBottom 2
WINDOW 3 32 56 VTop 2
SYMATTR InstName R11
SYMATTR Value 18k
SYMBOL res 1440 144 R90
WINDOW 0 0 56 VBottom 2
WINDOW 3 32 56 VTop 2
SYMATTR InstName R12
SYMATTR Value 30k
SYMBOL voltage 1152 688 R0
WINDOW 123 0 0 Left 0
WINDOW 39 0 0 Left 0
SYMATTR InstName V7
SYMATTR Value SINE(0 5 100)
SYMBOL res 1392 624 R90
WINDOW 0 0 56 VBottom 2
WINDOW 3 32 56 VTop 2
SYMATTR InstName R13
SYMATTR Value 30k
SYMBOL res 1536 512 R90
WINDOW 0 0 56 VBottom 2
WINDOW 3 32 56 VTop 2
SYMATTR InstName R14
SYMATTR Value 10k
SYMBOL Opamps\\UniversalOpAmp1 1472 656 R0
SYMATTR InstName U6
TEXT -50 248 Left 2 !.tran .1
TEXT 328 -176 Left 6 ;CV OUT
TEXT 248 416 Left 6 ;Audio OUT
TEXT 1312 -168 Left 6 ;CV IN
TEXT 1112 440 Left 6 ;Audio In
RECTANGLE Normal 320 752 -192 480 2
